# CIF file generated by openbabel 2.4.90, see http://openbabel.sf.net
data_I
_chemical_name_common ''
_cell_length_a 14.76
_cell_length_b 14.768
_cell_length_c 14.7681
_cell_angle_alpha 119.862
_cell_angle_beta 119.897
_cell_angle_gamma 90.143
_space_group_name_H-M_alt 'P 1'
_space_group_name_Hall 'P 1'
loop_
    _symmetry_equiv_pos_as_xyz
    x,y,z
loop_
    _atom_site_label
    _atom_site_type_symbol
    _atom_site_fract_x
    _atom_site_fract_y
    _atom_site_fract_z
    _atom_site_occupancy
    Zr0     Zr   0.10953   0.12167   0.98732   1.000
    Zr1     Zr   0.87102   0.88213   0.74782   1.000
    Zr2     Zr   0.87258   0.11833   0.99071   1.000
    H3      H    0.00914   0.17003   0.35988   1.000
    Zr4     Zr   0.11437   0.11753   0.22665   1.000
    Zr5     Zr   0.11279   0.88109   0.98312   1.000
    Zr6     Zr   0.87625   0.87842   0.98790   1.000
    Zr7     Zr   0.53260   0.02049   0.75924   1.000
    Zr8     Zr   0.99758   0.96010   0.94932   1.000
    Zr9     Zr   0.97039   0.89608   0.72029   1.000
    Zr10    Zr   0.70288   0.81056   0.38102   1.000
    Zr11    Zr   0.96078   0.90042   0.97431   1.000
    H12     H    0.90735   0.83093   0.45317   1.000
    H13     H    0.16317   0.63409   0.70597   1.000
    H14     H    0.89454   0.09613   0.80162   1.000
    H15     H    0.13211   0.40869   0.99191   1.000
    H16     H    0.27503   0.09536   0.17283   1.000
    H17     H    0.90032   0.71810   0.79734   1.000
    H18     H    0.83259   0.37884   0.26540   1.000
    H19     H    0.80257   0.02387   0.82193   1.000
    H20     H    0.13256   0.27620   0.72441   1.000
    H21     H    0.18762   0.21644   0.81151   1.000
    H22     H    0.05952   0.23642   0.77227   1.000
    H23     H    0.77169   0.48473   0.00935   1.000
    H24     H    0.85118   0.42458   0.08822   1.000
    H25     H    0.72059   0.47285   0.30481   1.000
    H26     H    0.75764   0.56147   0.46377   1.000
    H27     H    0.78605   0.61874   0.39772   1.000
    H28     H    0.22701   0.52836   0.99225   1.000
    H29     H    0.23004   0.66843   0.07325   1.000
    H30     H    0.14633   0.58233   0.90562   1.000
    H31     H    0.85997   0.59799   0.99680   1.000
    H32     H    0.02070   0.86428   0.08660   1.000
    H33     H    0.95236   0.27167   0.33209   1.000
    H34     H    0.71961   0.98271   0.84851   1.000
    H35     H    0.97505   0.91430   0.36281   1.000
    H36     H    0.05434   0.73913   0.16637   1.000
    H37     H    0.85171   0.84583   0.82281   1.000
    H38     H    0.06121   0.02970   0.69812   1.000
    H39     H    0.94355   0.91201   0.52393   1.000
    H40     H    0.97406   0.97124   0.89668   1.000
    H41     H    0.16542   0.13401   0.64593   1.000
    C42     C    0.78379   0.54616   0.40109   1.000
    C43     C    0.17681   0.58291   0.99068   1.000
    C44     C    0.99426   0.00382   0.68567   1.000
    C45     C    0.68081   0.99614   0.68670   1.000
    C46     C    0.99095   0.30867   0.99681   1.000
    C47     C    0.99973   0.30677   0.29574   1.000
    C48     C    0.29161   0.00063   0.97646   1.000
    C49     C    0.00050   0.69733   0.99050   1.000
    C50     C    0.00034   0.98959   0.29022   1.000
    C51     C    0.99341   0.70173   0.67748   1.000
    C52     C    0.99924   0.00407   0.58729   1.000
    C53     C    0.99027   0.40998   0.99724   1.000
    C54     C    0.00385   0.41159   0.39699   1.000
    C55     C    0.00280   0.59768   0.99340   1.000
    C56     C    0.99973   0.98781   0.39016   1.000
    C57     C    0.99163   0.60065   0.57470   1.000
    C58     C    0.94740   0.90298   0.46698   1.000
    C59     C    0.07301   0.45203   0.99366   1.000
    C60     C    0.90493   0.43636   0.36312   1.000
    C61     C    0.91980   0.55537   0.99649   1.000
    C62     C    0.05247   0.08870   0.51088   1.000
    C63     C    0.89503   0.52940   0.44832   1.000
    C64     C    0.09089   0.57658   0.60819   1.000
    C65     C    0.08299   0.54542   0.99245   1.000
    C66     C    0.94596   0.89121   0.36630   1.000
    C67     C    0.05409   0.10050   0.61168   1.000
    C68     C    0.10084   0.48373   0.52279   1.000
    C69     C    0.91067   0.46281   0.99938   1.000
    C70     C    0.81871   0.42710   0.00478   1.000
    C71     C    0.11131   0.21360   0.73648   1.000
    C72     C    0.51363   0.09953   0.73178   1.000
    C73     C    0.99707   0.11114   0.29427   1.000
    C74     C    0.03690   0.44696   0.62813   1.000
    C75     C    0.90395   0.05042   0.51721   1.000
    C76     C    0.04069   0.44033   0.22695   1.000
    C77     C    0.82760   0.45914   0.40480   1.000
    C78     C    0.05375   0.33636   0.44424   1.000
    C79     C    0.06016   0.28752   0.51520   1.000
    C80     C    0.57768   0.66286   0.35998   1.000
    C81     C    0.09418   0.40390   0.08531   1.000
    C82     C    0.98618   0.35272   0.48385   1.000
    C83     C    0.06841   0.46252   0.73421   1.000
    C84     C    0.09136   0.41910   0.61102   1.000
    C85     C    0.07895   0.30030   0.93710   1.000
    C86     C    0.93171   0.37003   0.06350   1.000
    C87     C    0.94263   0.80205   0.91691   1.000
    C88     C    0.09501   0.90029   0.91361   1.000
    C89     C    0.06160   0.67185   0.06915   1.000
    C90     C    0.85000   0.24341   0.07419   1.000
    C91     C    0.26277   0.11815   0.39174   1.000
    C92     C    0.83903   0.81694   0.09740   1.000
    C93     C    0.51821   0.01889   0.78727   1.000
    C94     C    0.13046   0.80357   0.03770   1.000
    C95     C    0.76527   0.88639   0.43547   1.000
    O96     O    0.04201   0.14912   0.08852   1.000
    O97     O    0.04068   0.95225   0.88625   1.000
    O98     O    0.04480   0.94908   0.08540   1.000
    O99     O    0.06910   0.08104   0.80290   1.000
    O100    O    0.72229   0.92098   0.64840   1.000
    O101    O    0.91437   0.26630   0.99563   1.000
    O102    O    0.07406   0.26390   0.33125   1.000
    O103    O    0.25370   0.92284   0.97724   1.000
    O104    O    0.07447   0.73712   0.98657   1.000
    O105    O    0.92273   0.91436   0.17331   1.000
    O106    O    0.25833   0.07231   0.32612   1.000
    O107    O    0.07146   0.74005   0.79345   1.000
    O108    O    0.25282   0.26804   0.17246   1.000
    O109    O    0.91659   0.74259   0.64339   1.000
    O110    O    0.92252   0.73569   0.99027   1.000
    O111    O    0.07636   0.06844   0.32826   1.000
    O112    O    0.91559   0.92684   0.64643   1.000
    O113    O    0.72244   0.07324   0.80361   1.000
    O114    O    0.91956   0.26530   0.17953   1.000
    O115    O    0.25082   0.07719   0.97810   1.000
    O116    O    0.06809   0.26948   0.99539   1.000
    O117    O    0.92247   0.06868   0.85451   1.000
    O118    O    0.19469   0.06794   0.11983   1.000
    O119    O    0.92636   0.79837   0.85078   1.000
    O120    O    0.84360   0.94945   0.88927   1.000
    O121    O    0.85444   0.84910   0.41320   1.000
    O122    O    0.21332   0.16325   0.33043   1.000
    O123    O    0.30464   0.28626   0.15184   1.000
    O124    O    0.00371   0.39229   0.50897   1.000
    O125    O    0.02784   0.23610   0.72436   1.000
    O126    O    0.78217   0.64116   0.45105   1.000
    O127    O    0.99116   0.39555   0.16655   1.000
    O128    O    0.01227   0.22404   0.02653   1.000
    O129    O    0.92760   0.38355   0.24967   1.000
    O130    O    0.77836   0.65045   0.26247   1.000
    O131    O    0.11286   0.71365   0.08487   1.000
    O132    O    0.10211   0.53783   0.66121   1.000
    O133    O    0.91532   0.38890   0.89751   1.000
    O134    O    0.81996   0.20583   0.93904   1.000
loop_
    _geom_bond_atom_site_label_1
    _geom_bond_atom_site_label_2
    _geom_bond_distance
    _geom_bond_site_symmetry_2
    _ccdc_geom_bond_type
    C70    H23       1.09681      .   S
    C70    C86       1.88080      .   S
    C70    H24       1.09843      .   S
    C70    C69       1.50766  1_554   S
    O128   O96       1.69281      .   S
    O128   Zr0       2.15623  1_554   S
    C94    O131      1.84817      .   S
    C94    Zr5       1.65508  1_554   S
    C94    O104      0.92309  1_554   S
    C86    O127      1.15056      .   S
    C86    O101      1.27671  1_554   S
    C89    O131      0.82908      .   S
    C89    H36       1.33916      .   S
    C89    C49       1.30251  1_554   S
    C89    C55       1.00582  1_554   S
    H29    C43       1.09802  1_554   S
    C90    O114      1.21824      .   S
    C90    O134      1.58160  1_554   S
    C90    Zr2       1.78544  1_554   S
    C81    C59       1.72393  1_554   S
    C81    C46       1.47700  1_454   S
    C81    C53       1.47659  1_454   S
    O98    H32       1.31196      .   S
    O98    Zr11      1.24065  1_454   S
    O96    Zr0       2.06752  1_554   S
    C92    O105      1.36281      .   S
    O118   H16       0.96927      .   S
    O123   O108      1.03098      .   S
    O127   C76       0.72634  1_655   S
    O105   C50       1.28036  1_655   S
    O114   C47       1.28292      .   S
    Zr4    O122      1.29271      .   S
    O130   Zr10      2.78077      .   S
    H18    C60       1.08761      .   S
    C50    C73       1.76764  1_465   S
    C50    O111      1.28227  1_565   S
    C50    C56       1.49365  1_455   S
    C73    O111      1.32388  1_655   S
    C73    H3        0.84556  1_655   S
    C47    O102      1.28063  1_655   S
    C47    H33       1.30194      .   S
    C47    C54       1.49656  1_655   S
    H25    C42       1.09717      .   S
    C80    Zr10      2.64604      .   S
    H35    C66       0.58486      .   S
    C60    C54       1.40450  1_655   S
    C60    C63       1.39825      .   S
    C66    C58       1.39732      .   S
    Zr10   C95       1.05283      .   S
    C56    C62       1.40351  1_665   S
    C54    C68       1.41633      .   S
    H27    O126      0.72014      .   S
    C42    C77       1.45311      .   S
    C42    O126      1.22489      .   S
    C42    H26       1.09779      .   S
    C77    C63       1.08312      .   S
    O121   H12       0.85414      .   S
    O121   C58       1.19388      .   S
    C78    C82       1.35551  1_455   S
    C63    C57       1.41688      .   S
    C58    H39       0.81511      .   S
    C58    C52       1.40309  1_565   S
    C82    O124      0.48344  1_655   S
    C82    C79       1.50973  1_655   S
    O124   C84       1.24957      .   S
    C62    C67       1.39753      .   S
    C75    C52       1.66645      .   S
    C68    C64       1.39854      .   S
    C57    C64       1.40455  1_655   S
    C57    C51       1.49554      .   S
    C52    C67       1.41630  1_655   S
    C52    C44       1.49268      .   S
    C64    O132      1.13379      .   S
    C64    H13       1.08771      .   S
    C84    C74       0.98981      .   S
    C67    H41       1.45568      .   S
    C67    C71       1.50852      .   S
    C74    O132      1.35567      .   S
    C74    C83       1.27991      .   S
    O109   C51       1.28066      .   S
    O112   C44       1.28184  1_565   S
    O112   Zr9       1.29084      .   S
    C51    O107      1.28269  1_655   S
    C44    H38       0.95040  1_655   S
    C44    O99       1.28030  1_655   S
    C45    O113      1.27914  1_565   S
    Zr9    Zr1       1.74210      .   S
    O125   C71       1.22553      .   S
    O125   H22       0.62140      .   S
    H20    C71       1.09690      .   S
    C72    Zr7       1.40177      .   S
    C71    H21       1.09886      .   S
    Zr7    C93       0.56084      .   S
    H17    O119      0.96928      .   S
    H14    O117      0.96929      .   S
    O113   H19       1.37308      .   S
    H34    Zr2       2.14046  1_565   S
    O119   C87       0.85303      .   S
    O97    C88       1.17645      .   S
    O97    Zr8       1.33005  1_455   S
    O120   Zr2       2.06944  1_565   S
    H40    Zr8       0.78129      .   S
    O133   C53       1.18634      .   S
    O133   C69       1.38841      .   S
    H30    C43       1.09833      .   S
    C88    Zr5       1.10671      .   S
    C87    Zr11      1.20250      .   S
    C85    O116      1.22529      .   S
    O134   O101      1.23588      .   S
    Zr8    Zr11      1.31504      .   S
    Zr11   Zr6       1.41957      .   S
    C48    O103      1.28428  1_545   S
    C48    O115      1.27753      .   S
    O104   C49       1.27852      .   S
    O110   C49       1.28334  1_655   S
    C43    H28       1.09681      .   S
    C43    C65       1.50715      .   S
    H15    C59       1.08630      .   S
    C65    C55       1.41672      .   S
    C65    C59       1.39654      .   S
    C55    C61       1.40486  1_455   S
    C59    C53       1.40468  1_455   S
    O116   C46       1.28327  1_455   S
    C61    H31       1.08626      .   S
    C61    C69       1.39692      .   S
    C53    C69       1.41673      .   S
    O96    Zr2       2.07036  1_454   S
    O96    Zr4       2.07312      .   S
    O96    Zr8       2.31969  1_444   S
    O97    Zr0       2.06806  1_565   S
    O97    Zr1       2.07317  1_455   S
    O97    Zr5       2.06605      .   S
    O97    Zr9       1.79095  1_455   S
    O97    Zr11      2.48663  1_455   S
    O97    H40       1.08568  1_455   S
    O98    Zr4       2.06848  1_565   S
    O98    Zr5       2.07427  1_554   S
    O98    Zr6       2.06667  1_454   S
    O98    Zr8       1.86573  1_454   S
    O99    Zr0       2.21007      .   S
    O99    Zr9       2.44179  1_445   S
    O99    H38       1.27843      .   S
    O100   Zr1       2.22173      .   S
    O100   C45       1.28460      .   S
    O101   Zr2       2.22518      .   S
    O101   C46       1.27884      .   S
    O101   O128      1.52204  1_656   S
    O102   Zr4       2.23835      .   S
    O102   C78       1.65570      .   S
    O103   Zr5       2.22269      .   S
    O104   Zr5       2.23016      .   S
    O104   O131      1.49351  1_556   S
    O105   Zr6       2.21994  1_554   S
    O106   Zr4       2.23410      .   S
    O106   C91       0.82760      .   S
    O106   O122      1.48679      .   S
    O107   Zr5       2.24428      .   S
    O108   Zr0       2.22447  1_554   S
    O109   Zr1       2.22568      .   S
    O109   Zr9       1.89385      .   S
    O110   Zr6       2.22877      .   S
    O110   Zr11      2.64377      .   S
    O111   Zr4       2.23888      .   S
    O112   Zr1       2.25279      .   S
    O113   Zr2       2.24619      .   S
    O113   Zr7       2.55692      .   S
    O113   O134      1.76703      .   S
    O114   Zr2       2.23726  1_554   S
    O114   O129      1.48724      .   S
    O115   Zr0       2.23605      .   S
    O116   Zr0       2.23013      .   S
    O116   C81       1.64736  1_556   S
    O116   O128      1.42219  1_556   S
    O117   Zr0       2.26821  1_655   S
    O117   Zr1       2.26346  1_545   S
    O117   Zr2       2.26632      .   S
    O117   Zr8       2.54128  1_545   S
    O117   Zr9       2.70214  1_545   S
    O118   Zr0       2.26677  1_554   S
    O118   Zr4       2.26906      .   S
    O118   Zr5       2.27031  1_544   S
    O118   Zr8       2.45388  1_444   S
    O119   Zr1       2.26918      .   S
    O119   Zr5       2.26460  1_655   S
    O119   Zr6       2.27128      .   S
    O119   Zr8       1.98203      .   S
    O119   Zr11      1.48044      .   S
    O119   H37       1.30931      .   S
    O120   Zr1       2.07185      .   S
    O120   Zr6       2.06845      .   S
    O120   Zr8       1.95623      .   S
    O120   Zr11      1.95945      .   S
    O120   H37       1.39348      .   S
    O121   Zr10      2.05390      .   S
    O121   H39       1.26650      .   S
    O121   C95       1.54868      .   S
    O122   C91       1.31921      .   S
    O123   Zr0       2.68580  1_554   S
    O128   Zr2       2.24561  1_454   S
    O128   C46       1.50469  1_454   S
    O134   Zr2       1.80315      .   S
