# CIF file generated by openbabel 2.4.90, see http://openbabel.sf.net
data_I
_chemical_name_common ''
_cell_length_a 71.5169
_cell_length_b 71.4927
_cell_length_c 71.6087
_cell_angle_alpha 89.8315
_cell_angle_beta 90.1248
_cell_angle_gamma 89.8689
_space_group_name_H-M_alt 'P 1'
_space_group_name_Hall 'P 1'
loop_
    _symmetry_equiv_pos_as_xyz
    x,y,z
loop_
    _atom_site_label
    _atom_site_type_symbol
    _atom_site_fract_x
    _atom_site_fract_y
    _atom_site_fract_z
    _atom_site_occupancy
    C0      C    0.07225   0.02358   0.10692   1.000
    C1      C    0.92413   0.97559   0.10697   1.000
    C2      C    0.02430   0.10823   0.07249   1.000
    C3      C    0.97291   0.89085   0.07355   1.000
    C4      C    0.10845   0.07225   0.02404   1.000
    C5      C    0.89106   0.92672   0.02256   1.000
    C6      C    0.97407   0.07498   0.10659   1.000
    C7      C    0.02266   0.92443   0.10775   1.000
    C8      C    0.10638   0.97347   0.07387   1.000
    C9      C    0.89114   0.02566   0.07190   1.000
    C10     C    0.92590   0.10910   0.02188   1.000
    C11     C    0.07232   0.88888   0.02561   1.000
    C12     C    0.92476   0.02535   0.10655   1.000
    C13     C    0.07200   0.97391   0.10759   1.000
    C14     C    0.02238   0.88987   0.07417   1.000
    C15     C    0.97449   0.10906   0.07225   1.000
    C16     C    0.89239   0.07470   0.02161   1.000
    C17     C    0.10639   0.92312   0.02558   1.000
    C18     C    0.97319   0.92544   0.10705   1.000
    C19     C    0.02364   0.07419   0.10662   1.000
    C20     C    0.89065   0.97594   0.07224   1.000
    C21     C    0.10694   0.02273   0.07348   1.000
    C22     C    0.92421   0.89183   0.02333   1.000
    C23     C    0.07438   0.10657   0.02357   1.000
    C24     C    0.07415   0.97314   0.89139   1.000
    C25     C    0.92756   0.02467   0.88905   1.000
    C26     C    0.97676   0.10848   0.92370   1.000
    C27     C    0.02395   0.88958   0.92609   1.000
    C28     C    0.10623   0.92357   0.97644   1.000
    C29     C    0.89252   0.07470   0.97207   1.000
    C30     C    0.02588   0.07327   0.89029   1.000
    C31     C    0.97542   0.92444   0.89122   1.000
    C32     C    0.10842   0.02255   0.92541   1.000
    C33     C    0.89301   0.97565   0.92329   1.000
    C34     C    0.07513   0.10682   0.97408   1.000
    C35     C    0.92492   0.89133   0.97400   1.000
    C36     C    0.92697   0.97496   0.88931   1.000
    C37     C    0.07437   0.02275   0.89108   1.000
    C38     C    0.97462   0.89007   0.92516   1.000
    C39     C    0.02628   0.10782   0.92392   1.000
    C40     C    0.89145   0.92631   0.97300   1.000
    C41     C    0.10879   0.07220   0.97450   1.000
    C42     C    0.02471   0.92374   0.89164   1.000
    C43     C    0.97651   0.07447   0.88943   1.000
    C44     C    0.89315   0.02498   0.92293   1.000
    C45     C    0.10716   0.97315   0.92671   1.000
    C46     C    0.07276   0.88875   0.97609   1.000
    C47     C    0.92673   0.10891   0.97233   1.000
    C48     C    0.97649   0.42642   0.39298   1.000
    C49     C    0.02450   0.57565   0.39350   1.000
    C50     C    0.89111   0.47571   0.42622   1.000
    C51     C    0.10823   0.52526   0.42624   1.000
    C52     C    0.92575   0.39189   0.47442   1.000
    C53     C    0.07481   0.60870   0.47627   1.000
    C54     C    0.92640   0.52479   0.39277   1.000
    C55     C    0.07390   0.47673   0.39127   1.000
    C56     C    0.02650   0.39169   0.42605   1.000
    C57     C    0.97493   0.60951   0.42743   1.000
    C58     C    0.89185   0.57448   0.47582   1.000
    C59     C    0.11052   0.42640   0.47409   1.000
    C60     C    0.97536   0.57475   0.39372   1.000
    C61     C    0.02591   0.42604   0.39182   1.000
    C62     C    0.10862   0.47603   0.42475   1.000
    C63     C    0.89168   0.52529   0.42616   1.000
    C64     C    0.92513   0.60930   0.47614   1.000
    C65     C    0.07657   0.39237   0.47479   1.000
    C66     C    0.07418   0.52635   0.39185   1.000
    C67     C    0.92598   0.47527   0.39281   1.000
    C68     C    0.02441   0.60933   0.42780   1.000
    C69     C    0.97662   0.39184   0.42625   1.000
    C70     C    0.10885   0.57422   0.47602   1.000
    C71     C    0.89095   0.42566   0.47496   1.000
    C72     C    0.02581   0.42528   0.60721   1.000
    C73     C    0.97604   0.57268   0.60804   1.000
    C74     C    0.89198   0.52369   0.57401   1.000
    C75     C    0.11012   0.47485   0.57425   1.000
    C76     C    0.07699   0.39240   0.52410   1.000
    C77     C    0.92594   0.60826   0.52543   1.000
    C78     C    0.92652   0.47402   0.60786   1.000
    C79     C    0.07541   0.52376   0.60852   1.000
    C80     C    0.97694   0.39122   0.57223   1.000
    C81     C    0.02518   0.60729   0.57431   1.000
    C82     C    0.89140   0.42495   0.52454   1.000
    C83     C    0.10930   0.57412   0.52538   1.000
    C84     C    0.02527   0.57260   0.60816   1.000
    C85     C    0.97644   0.42495   0.60661   1.000
    C86     C    0.10958   0.52420   0.57444   1.000
    C87     C    0.89230   0.47426   0.57397   1.000
    C88     C    0.07497   0.60825   0.52554   1.000
    C89     C    0.92634   0.39149   0.52376   1.000
    C90     C    0.07548   0.47437   0.60802   1.000
    C91     C    0.92643   0.52356   0.60810   1.000
    C92     C    0.97606   0.60725   0.57412   1.000
    C93     C    0.02656   0.39194   0.57252   1.000
    C94     C    0.11087   0.42676   0.52373   1.000
    C95     C    0.89169   0.57415   0.52535   1.000
    C96     C    0.47563   0.92631   0.39198   1.000
    C97     C    0.52310   0.07407   0.39148   1.000
    C98     C    0.39103   0.97462   0.42516   1.000
    C99     C    0.60809   0.02655   0.42654   1.000
    C100    C    0.42627   0.89113   0.47478   1.000
    C101    C    0.57197   0.10808   0.47624   1.000
    C102    C    0.42462   0.02451   0.39119   1.000
    C103    C    0.57447   0.97676   0.39254   1.000
    C104    C    0.52569   0.89276   0.42618   1.000
    C105    C    0.47372   0.10762   0.42605   1.000
    C106    C    0.39021   0.07258   0.47508   1.000
    C107    C    0.60842   0.92773   0.47673   1.000
    C108    C    0.47353   0.07441   0.39114   1.000
    C109    C    0.52503   0.92741   0.39239   1.000
    C110    C    0.60842   0.97705   0.42699   1.000
    C111    C    0.39028   0.02414   0.42491   1.000
    C112    C    0.42455   0.10635   0.47559   1.000
    C113    C    0.57457   0.89346   0.47619   1.000
    C114    C    0.57391   0.02602   0.39220   1.000
    C115    C    0.42517   0.97493   0.39119   1.000
    C116    C    0.52320   0.10788   0.42576   1.000
    C117    C    0.47620   0.89231   0.42612   1.000
    C118    C    0.60715   0.07527   0.47644   1.000
    C119    C    0.39204   0.92523   0.47472   1.000
    C120    C    0.52469   0.92565   0.60876   1.000
    C121    C    0.47325   0.07367   0.61011   1.000
    C122    C    0.39098   0.02369   0.57511   1.000
    C123    C    0.60684   0.97671   0.57511   1.000
    C124    C    0.57466   0.89250   0.52553   1.000
    C125    C    0.42394   0.10633   0.52489   1.000
    C126    C    0.42521   0.97404   0.60910   1.000
    C127    C    0.57258   0.02577   0.60914   1.000
    C128    C    0.47554   0.89144   0.57435   1.000
    C129    C    0.52185   0.10787   0.57492   1.000
    C130    C    0.39215   0.92539   0.52411   1.000
    C131    C    0.60713   0.07503   0.52587   1.000
    C132    C    0.52280   0.07481   0.61007   1.000
    C133    C    0.47532   0.92530   0.60850   1.000
    C134    C    0.60702   0.02582   0.57531   1.000
    C135    C    0.39198   0.97453   0.57389   1.000
    C136    C    0.57173   0.10819   0.52576   1.000
    C137    C    0.42653   0.89148   0.52433   1.000
    C138    C    0.57287   0.97623   0.60898   1.000
    C139    C    0.42493   0.02348   0.60958   1.000
    C140    C    0.47245   0.10746   0.57542   1.000
    C141    C    0.52500   0.89186   0.57441   1.000
    C142    C    0.60795   0.92737   0.52596   1.000
    C143    C    0.39035   0.07207   0.52466   1.000
    C144    C    0.47530   0.42683   0.89209   1.000
    C145    C    0.52640   0.57353   0.89035   1.000
    C146    C    0.39187   0.47662   0.92718   1.000
    C147    C    0.60884   0.52399   0.92627   1.000
    C148    C    0.42587   0.39399   0.97740   1.000
    C149    C    0.57463   0.60785   0.97532   1.000
    C150    C    0.42620   0.52548   0.89241   1.000
    C151    C    0.57494   0.47422   0.89244   1.000
    C152    C    0.52396   0.39184   0.92668   1.000
    C153    C    0.47744   0.60824   0.92446   1.000
    C154    C    0.39466   0.57634   0.97574   1.000
    C155    C    0.60681   0.42490   0.97681   1.000
    C156    C    0.47677   0.57359   0.89084   1.000
    C157    C    0.52494   0.42542   0.89201   1.000
    C158    C    0.60844   0.47427   0.92712   1.000
    C159    C    0.39290   0.52608   0.92732   1.000
    C160    C    0.42916   0.61017   0.97484   1.000
    C161    C    0.57242   0.39127   0.97701   1.000
    C162    C    0.57538   0.52368   0.89163   1.000
    C163    C    0.42601   0.47639   0.89282   1.000
    C164    C    0.52646   0.60745   0.92465   1.000
    C165    C    0.47457   0.39324   0.92693   1.000
    C166    C    0.60845   0.57361   0.97547   1.000
    C167    C    0.39147   0.42784   0.97736   1.000
    C168    C    0.52561   0.42735   0.11061   1.000
    C169    C    0.47720   0.57595   0.10913   1.000
    C170    C    0.39328   0.52764   0.07443   1.000
    C171    C    0.60981   0.47484   0.07427   1.000
    C172    C    0.57267   0.39130   0.02650   1.000
    C173    C    0.42896   0.61088   0.02459   1.000
    C174    C    0.42681   0.47818   0.10944   1.000
    C175    C    0.57594   0.52491   0.10750   1.000
    C176    C    0.47560   0.39400   0.07657   1.000
    C177    C    0.52679   0.60964   0.07486   1.000
    C178    C    0.39168   0.42803   0.02695   1.000
    C179    C    0.60915   0.57400   0.02468   1.000
    C180    C    0.52671   0.57491   0.10841   1.000
    C181    C    0.47577   0.42804   0.11085   1.000
    C182    C    0.61046   0.52450   0.07395   1.000
    C183    C    0.39211   0.47803   0.07571   1.000
    C184    C    0.57533   0.60852   0.02483   1.000
    C185    C    0.42615   0.39402   0.02690   1.000
    C186    C    0.57601   0.47568   0.10853   1.000
    C187    C    0.42678   0.52754   0.10927   1.000
    C188    C    0.47735   0.61016   0.07496   1.000
    C189    C    0.52473   0.39266   0.07716   1.000
    C190    C    0.60734   0.42484   0.02591   1.000
    C191    C    0.39494   0.57693   0.02472   1.000
