# CIF file generated by openbabel 2.4.90, see http://openbabel.sf.net
data_I
_chemical_name_common ''
_cell_length_a 11.6884
_cell_length_b 5.5643
_cell_length_c 22.8159
_cell_angle_alpha 90
_cell_angle_beta 100.691
_cell_angle_gamma 90
_space_group_name_H-M_alt 'P 1'
_space_group_name_Hall 'P 1'
loop_
    _symmetry_equiv_pos_as_xyz
    x,y,z
loop_
    _atom_site_label
    _atom_site_type_symbol
    _atom_site_fract_x
    _atom_site_fract_y
    _atom_site_fract_z
    _atom_site_occupancy
    Zr0     Zr   0.86258   0.75633   0.27818   1.000
    Zr1     Zr   0.23970   0.91505   0.69092   1.000
    Zr2     Zr   0.23621   0.52343   0.67212   1.000
    Zr3     Zr   0.54211   0.91879   0.24461   1.000
    Zr4     Zr   0.51296   0.52383   0.25348   1.000
    Zr5     Zr   0.22619   0.73840   0.65525   1.000
    Zr6     Zr   0.49352   0.74100   0.26289   1.000
    Zr7     Zr   0.63742   0.25633   0.22182   1.000
    Zr8     Zr   0.26030   0.41505   0.80908   1.000
    Zr9     Zr   0.26379   0.02343   0.82788   1.000
    Zr10    Zr   0.95789   0.41879   0.25539   1.000
    Zr11    Zr   0.98704   0.02383   0.24652   1.000
    Zr12    Zr   0.27381   0.23840   0.84475   1.000
    Zr13    Zr   0.00648   0.24100   0.23711   1.000
    Zr14    Zr   0.13742   0.24367   0.72182   1.000
    Zr15    Zr   0.76030   0.08495   0.30908   1.000
    Zr16    Zr   0.76379   0.47657   0.32788   1.000
    Zr17    Zr   0.45789   0.08121   0.75539   1.000
    Zr18    Zr   0.48704   0.47617   0.74652   1.000
    Zr19    Zr   0.77381   0.26160   0.34475   1.000
    Zr20    Zr   0.50648   0.25900   0.73711   1.000
    Zr21    Zr   0.36258   0.74367   0.77818   1.000
    Zr22    Zr   0.73970   0.58495   0.19092   1.000
    Zr23    Zr   0.73621   0.97657   0.17212   1.000
    Zr24    Zr   0.04211   0.58121   0.74461   1.000
    Zr25    Zr   0.01296   0.97617   0.75348   1.000
    Zr26    Zr   0.72619   0.76160   0.15525   1.000
    Zr27    Zr   0.99352   0.75900   0.76289   1.000
    O28     O    0.73120   0.86909   0.16369   1.000
    O29     O    0.73294   0.67328   0.17309   1.000
    O30     O    0.58976   0.08756   0.23322   1.000
    O31     O    0.57519   0.39008   0.23765   1.000
    O32     O    0.99676   0.13241   0.24182   1.000
    O33     O    0.98218   0.32989   0.24625   1.000
    O34     O    0.51781   0.82989   0.25375   1.000
    O35     O    0.92481   0.89008   0.26235   1.000
    O36     O    0.50324   0.63241   0.25819   1.000
    O37     O    0.91023   0.58756   0.26679   1.000
    O38     O    0.76705   0.17328   0.32692   1.000
    O39     O    0.76880   0.36909   0.33632   1.000
    O40     O    0.23120   0.63092   0.66369   1.000
    O41     O    0.23294   0.82672   0.67309   1.000
    O42     O    0.08976   0.41244   0.73322   1.000
    O43     O    0.07519   0.10992   0.73765   1.000
    O44     O    0.49676   0.36758   0.74182   1.000
    O45     O    0.48218   0.17011   0.74625   1.000
    O46     O    0.01782   0.67011   0.75375   1.000
    O47     O    0.42481   0.60992   0.76235   1.000
    O48     O    0.00324   0.86758   0.75819   1.000
    O49     O    0.41023   0.91244   0.76679   1.000
    O50     O    0.26705   0.32672   0.82692   1.000
    O51     O    0.26880   0.13091   0.83632   1.000
    O52     O    0.18856   0.07936   0.70637   1.000
    O53     O    0.30114   0.82936   0.73455   1.000
    O54     O    0.18681   0.38355   0.69697   1.000
    O55     O    0.29939   0.63355   0.72515   1.000
    O56     O    0.19886   0.32936   0.76545   1.000
    O57     O    0.31144   0.57936   0.79363   1.000
    O58     O    0.20061   0.13355   0.77485   1.000
    O59     O    0.31318   0.88355   0.80303   1.000
    O60     O    0.81144   0.92064   0.29363   1.000
    O61     O    0.69886   0.17064   0.26545   1.000
    O62     O    0.81318   0.61645   0.30303   1.000
    O63     O    0.70060   0.36645   0.27485   1.000
    O64     O    0.80114   0.67064   0.23455   1.000
    O65     O    0.68856   0.42064   0.20637   1.000
    O66     O    0.79939   0.86645   0.22515   1.000
    O67     O    0.68682   0.11645   0.19697   1.000
    N68     N    0.78071   0.13926   0.57669   1.000
    O69     O    0.92348   0.17914   0.62622   1.000
    O70     O    0.78338   0.18718   0.47713   1.000
    O71     O    0.66710   0.18643   0.64787   1.000
    N72     N    0.71929   0.63926   0.92331   1.000
    O73     O    0.57652   0.67914   0.87378   1.000
    O74     O    0.83290   0.68643   0.85213   1.000
    O75     O    0.71662   0.68718   0.02287   1.000
    N76     N    0.28071   0.36074   0.07669   1.000
    O77     O    0.16710   0.31357   0.14787   1.000
    O78     O    0.42348   0.32086   0.12622   1.000
    O79     O    0.28338   0.31282   0.97713   1.000
    N80     N    0.21929   0.86074   0.42331   1.000
    O81     O    0.33290   0.81357   0.35213   1.000
    O82     O    0.21662   0.81282   0.52287   1.000
    O83     O    0.07652   0.82086   0.37378   1.000
loop_
    _geom_bond_atom_site_label_1
    _geom_bond_atom_site_label_2
    _geom_bond_distance
    _geom_bond_site_symmetry_2
    _ccdc_geom_bond_type
    Zr26   O28       0.62768      .   S
    Zr23   O28       0.62768      .   S
    Zr26   O29       0.63359      .   S
    Zr22   O29       0.63359      .   S
    Zr7    O30       1.14607      .   S
    Zr3    O30       1.14607  1_565   S
    Zr7    O31       1.14493      .   S
    Zr4    O31       1.14493      .   S
    Zr13   O32       0.62770  1_455   S
    Zr11   O32       0.62770      .   S
    Zr13   O33       0.62511  1_455   S
    Zr10   O33       0.62511      .   S
    Zr3    O34       0.62511      .   S
    Zr6    O34       0.62511      .   S
    Zr11   O35       1.14493  1_545   S
    Zr0    O35       1.14493      .   S
    Zr4    O36       0.62770      .   S
    Zr6    O36       0.62770      .   S
    Zr10   O37       1.14607      .   S
    Zr0    O37       1.14607      .   S
    Zr15   O38       0.63359      .   S
    Zr19   O38       0.63359      .   S
    Zr16   O39       0.62768      .   S
    Zr19   O39       0.62768      .   S
    Zr5    O40       0.62768      .   S
    Zr2    O40       0.62768      .   S
    Zr5    O41       0.63359      .   S
    Zr1    O41       0.63359      .   S
    Zr14   O42       1.14607      .   S
    Zr24   O42       1.14607      .   S
    Zr14   O43       1.14493      .   S
    Zr25   O43       1.14493  1_565   S
    Zr20   O44       0.62770      .   S
    Zr18   O44       0.62770      .   S
    Zr20   O45       0.62511      .   S
    Zr17   O45       0.62511      .   S
    Zr24   O46       0.62511      .   S
    Zr27   O46       0.62511  1_655   S
    Zr18   O47       1.14493      .   S
    Zr21   O47       1.14493      .   S
    Zr25   O48       0.62770      .   S
    Zr27   O48       0.62770  1_655   S
    Zr17   O49       1.14607  1_545   S
    Zr21   O49       1.14607      .   S
    Zr8    O50       0.63359      .   S
    Zr12   O50       0.63359      .   S
    Zr9    O51       0.62768      .   S
    Zr12   O51       0.62768      .   S
    Zr1    O52       1.18137  1_565   S
    Zr14   O52       1.18137      .   S
    Zr1    O53       1.21192      .   S
    Zr21   O53       1.21192      .   S
    Zr2    O54       1.17561      .   S
    Zr14   O54       1.17561      .   S
    Zr2    O55       1.43292      .   S
    Zr21   O55       1.43292      .   S
    Zr8    O56       1.21192      .   S
    Zr14   O56       1.21192      .   S
    Zr8    O57       1.18137      .   S
    Zr21   O57       1.18137      .   S
    Zr9    O58       1.43292      .   S
    Zr14   O58       1.43292      .   S
    Zr9    O59       1.17561  1_545   S
    Zr21   O59       1.17561      .   S
    Zr15   O60       1.18137  1_545   S
    Zr0    O60       1.18137      .   S
    Zr15   O61       1.21192      .   S
    Zr7    O61       1.21192      .   S
    Zr16   O62       1.17561      .   S
    Zr0    O62       1.17561      .   S
    Zr16   O63       1.43292      .   S
    Zr7    O63       1.43292      .   S
    Zr22   O64       1.21192      .   S
    Zr0    O64       1.21192      .   S
    Zr22   O65       1.18137      .   S
    Zr7    O65       1.18137      .   S
    Zr23   O66       1.43292      .   S
    Zr0    O66       1.43292      .   S
    Zr23   O67       1.17561  1_565   S
    Zr7    O67       1.17561      .   S
    N68    O69       1.84700      .   S
    Zr14   O69       3.01925  1_455   S
    N68    O70       2.29302      .   S
    Zr19   O70       3.03008      .   S
    N68    O71       2.29565      .   S
    Zr20   O71       3.04167      .   S
    N72    O73       1.84700      .   S
    Zr21   O73       3.01925      .   S
    N72    O74       2.29565      .   S
    Zr27   O74       3.04167      .   S
    N72    O75       2.29302  1_556   S
    Zr26   O75       3.03008      .   S
    N76    O77       2.29565      .   S
    Zr13   O77       3.04167      .   S
    N76    O78       1.84700      .   S
    Zr7    O78       3.01925      .   S
    N76    O79       2.29302  1_554   S
    Zr12   O79       3.03008      .   S
    N80    O81       2.29565      .   S
    Zr6    O81       3.04167      .   S
    N80    O82       2.29302      .   S
    Zr5    O82       3.03008      .   S
    N80    O83       1.84700      .   S
    Zr0    O83       3.01925  1_655   S
