# CIF file generated by openbabel 2.4.90, see http://openbabel.sf.net
data_I
_chemical_name_common ''
_cell_length_a 18.5949
_cell_length_b 18.5949
_cell_length_c 18.595
_cell_angle_alpha 89.9998
_cell_angle_beta 120
_cell_angle_gamma 120
_space_group_name_H-M_alt 'P 1'
_space_group_name_Hall 'P 1'
loop_
    _symmetry_equiv_pos_as_xyz
    x,y,z
loop_
    _atom_site_label
    _atom_site_type_symbol
    _atom_site_fract_x
    _atom_site_fract_y
    _atom_site_fract_z
    _atom_site_occupancy
    C0      C    0.64312   0.38652   0.61348   1.000
    C1      C    0.35689   0.38652   0.61348   1.000
    H2      H    0.76270   0.73462   0.26539   1.000
    H3      H    0.76271   0.02809   0.49732   1.000
    H4      H    0.23730   0.73462   0.26538   1.000
    H5      H    0.23730   0.50269   0.97192   1.000
    H6      H    0.23729   0.97191   0.50268   1.000
    H7      H    0.46923   0.73461   0.97192   1.000
    H8      H    0.53077   0.50269   0.26538   1.000
    H9      H    0.46923   0.73462   0.49731   1.000
    H10     H    0.53078   0.02809   0.26538   1.000
    H11     H    0.76270   0.02808   0.26538   1.000
    H12     H    0.23730   0.73462   0.97192   1.000
    H13     H    0.23731   0.50269   0.26538   1.000
    H14     H    0.76270   0.73462   0.49732   1.000
    H15     H    0.23729   0.26538   0.50268   1.000
    H16     H    0.23730   0.97192   0.73462   1.000
    H17     H    0.76270   0.26538   0.02809   1.000
    H18     H    0.76269   0.49731   0.73462   1.000
    H19     H    0.53076   0.26538   0.50269   1.000
    H20     H    0.46923   0.49732   0.73462   1.000
    H21     H    0.53077   0.26539   0.02809   1.000
    H22     H    0.46922   0.97191   0.73462   1.000
    C23     C    0.40696   0.56921   0.97617   1.000
    C24     C    0.59304   0.56921   0.16225   1.000
    H25     H    0.76270   0.26538   0.73462   1.000
    H26     H    0.76269   0.49731   0.02809   1.000
    H27     H    0.23729   0.26538   0.73462   1.000
    C28     C    0.72985   0.70015   0.29985   1.000
    C29     C    0.72985   0.02970   0.43001   1.000
    C30     C    0.27014   0.70015   0.29985   1.000
    C31     C    0.27014   0.56999   0.97030   1.000
    C32     C    0.40030   0.70015   0.97030   1.000
    C33     C    0.59970   0.57000   0.29985   1.000
    C34     C    0.40030   0.70015   0.43001   1.000
    C35     C    0.59969   0.02970   0.29985   1.000
    C36     C    0.72985   0.02970   0.29985   1.000
    C37     C    0.27014   0.70015   0.97030   1.000
    C38     C    0.27015   0.57000   0.29985   1.000
    C39     C    0.72985   0.70015   0.43001   1.000
    C40     C    0.27015   0.29985   0.56999   1.000
    C41     C    0.27015   0.97030   0.70015   1.000
    C42     C    0.72986   0.29985   0.02970   1.000
    C43     C    0.72985   0.43000   0.70015   1.000
    C44     C    0.59970   0.29985   0.56999   1.000
    C45     C    0.40030   0.43000   0.70015   1.000
    C46     C    0.59970   0.29985   0.02970   1.000
    C47     C    0.40031   0.97030   0.70015   1.000
    C48     C    0.27015   0.97030   0.56999   1.000
    C49     C    0.72986   0.29985   0.70015   1.000
    C50     C    0.72986   0.43001   0.02970   1.000
    C51     C    0.27015   0.29985   0.70015   1.000
    C52     C    0.86158   0.83775   0.43079   1.000
    C53     C    0.86158   0.02383   0.43079   1.000
    C54     C    0.13842   0.56921   0.16225   1.000
    C55     C    0.13842   0.56921   0.97617   1.000
    C56     C    0.40696   0.83775   0.43079   1.000
    C57     C    0.59304   0.02383   0.43079   1.000
    C58     C    0.59304   0.02383   0.16225   1.000
    C59     C    0.40696   0.83775   0.97617   1.000
    C60     C    0.40696   0.56921   0.43079   1.000
    C61     C    0.59304   0.56921   0.43079   1.000
    C62     C    0.13842   0.16225   0.56921   1.000
    C63     C    0.13842   0.97617   0.56921   1.000
    C64     C    0.86158   0.43079   0.02383   1.000
    C65     C    0.86158   0.43079   0.83775   1.000
    C66     C    0.59304   0.43079   0.56921   1.000
    C67     C    0.40696   0.43079   0.56921   1.000
    C68     C    0.59304   0.16225   0.02383   1.000
    C69     C    0.40696   0.97617   0.83775   1.000
    C70     C    0.40696   0.97617   0.56921   1.000
    C71     C    0.59304   0.16225   0.56921   1.000
    C72     C    0.59304   0.43079   0.02383   1.000
    C73     C    0.40696   0.43079   0.83775   1.000
    C74     C    0.77303   0.74340   0.38652   1.000
    C75     C    0.77303   0.02963   0.38652   1.000
    C76     C    0.22696   0.61348   0.25660   1.000
    C77     C    0.22696   0.61348   0.97037   1.000
    C78     C    0.35688   0.61348   0.97037   1.000
    C79     C    0.64311   0.61348   0.25660   1.000
    C80     C    0.35688   0.74340   0.38652   1.000
    C81     C    0.64311   0.02963   0.38652   1.000
    C82     C    0.64311   0.02963   0.25660   1.000
    C83     C    0.35688   0.74340   0.97037   1.000
    C84     C    0.35688   0.61348   0.38652   1.000
    C85     C    0.64311   0.61348   0.38652   1.000
    C86     C    0.22697   0.25660   0.61348   1.000
    C87     C    0.22697   0.97037   0.61348   1.000
    C88     C    0.77304   0.38652   0.02963   1.000
    C89     C    0.77304   0.38652   0.74341   1.000
    C90     C    0.64312   0.25660   0.02963   1.000
    C91     C    0.35689   0.97037   0.74340   1.000
    C92     C    0.35689   0.97037   0.61348   1.000
    C93     C    0.64312   0.25660   0.61348   1.000
    C94     C    0.64312   0.38652   0.02963   1.000
    C95     C    0.35689   0.38652   0.74341   1.000
    O96     O    0.89491   0.87441   0.38627   1.000
    O97     O    0.89492   0.02051   0.50865   1.000
    O98     O    0.10507   0.61372   0.12559   1.000
    O99     O    0.10509   0.49136   0.97950   1.000
    O100    O    0.48814   0.61373   0.97950   1.000
    O101    O    0.51185   0.49135   0.12559   1.000
    O102    O    0.48813   0.87441   0.50864   1.000
    O103    O    0.51187   0.02051   0.38628   1.000
    O104    O    0.63423   0.02050   0.12558   1.000
    O105    O    0.36576   0.87441   0.97950   1.000
    O106    O    0.36578   0.49136   0.38627   1.000
    O107    O    0.63423   0.61373   0.50865   1.000
    O108    O    0.10507   0.12558   0.49135   1.000
    O109    O    0.10509   0.97950   0.61373   1.000
    O110    O    0.89493   0.38628   0.02051   1.000
    O111    O    0.89491   0.50864   0.87441   1.000
    O112    O    0.51186   0.38627   0.49135   1.000
    O113    O    0.48814   0.50864   0.61373   1.000
    O114    O    0.51186   0.12559   0.02050   1.000
    O115    O    0.48814   0.97949   0.87441   1.000
    O116    O    0.36577   0.97950   0.49135   1.000
    O117    O    0.63423   0.12558   0.61373   1.000
    O118    O    0.63424   0.50865   0.02050   1.000
    O119    O    0.36577   0.38627   0.87441   1.000
    O120    O    0.10509   0.12559   0.61373   1.000
    O121    O    0.10508   0.97949   0.49135   1.000
    O122    O    0.89493   0.38628   0.87441   1.000
    O123    O    0.89491   0.50864   0.02050   1.000
    O124    O    0.51186   0.38627   0.02050   1.000
    O125    O    0.48815   0.50865   0.87441   1.000
    O126    O    0.51187   0.12559   0.49136   1.000
    O127    O    0.48813   0.97949   0.61373   1.000
    O128    O    0.36577   0.97950   0.87442   1.000
    O129    O    0.63424   0.12559   0.02050   1.000
    O130    O    0.63422   0.50864   0.61373   1.000
    O131    O    0.36577   0.38627   0.49136   1.000
    O132    O    0.89492   0.87441   0.50865   1.000
    O133    O    0.89491   0.02050   0.38627   1.000
    O134    O    0.10507   0.61372   0.97949   1.000
    O135    O    0.10509   0.49136   0.12559   1.000
    O136    O    0.48813   0.61372   0.50865   1.000
    O137    O    0.51186   0.49136   0.38627   1.000
    O138    O    0.48814   0.87441   0.97950   1.000
    O139    O    0.51186   0.02051   0.12559   1.000
    O140    O    0.63423   0.02050   0.50865   1.000
    O141    O    0.36577   0.87442   0.38627   1.000
    O142    O    0.36577   0.49136   0.97950   1.000
    O143    O    0.63423   0.61373   0.12559   1.000
loop_
    _geom_bond_atom_site_label_1
    _geom_bond_atom_site_label_2
    _geom_bond_distance
    _geom_bond_site_symmetry_2
    _ccdc_geom_bond_type
    O124   C72       1.27464      .   S
    O123   C64       1.27464      .   S
    O129   C68       1.27482      .   S
    O118   C72       1.27481      .   S
    O114   C68       1.27464      .   S
    O110   C64       1.27474      .   S
    C68    C90       1.49085      .   S
    C64    C88       1.49068      .   S
    C72    C94       1.49085      .   S
    H17    C42       1.09286      .   S
    H21    C46       1.09301      .   S
    H26    C50       1.09269      .   S
    C88    C42       1.39608      .   S
    C88    C50       1.39609      .   S
    C94    C46       1.39608      .   S
    C94    C50       1.39608      .   S
    C90    C42       1.39608      .   S
    C90    C46       1.39609      .   S
    O104   C58       1.27481      .   S
    O143   C24       1.27465      .   S
    O135   C54       1.27465      .   S
    O98    C54       1.27468      .   S
    O101   C24       1.27480      .   S
    O139   C58       1.27475      .   S
    C54    C76       1.49081      .   S
    C58    C82       1.49086      .   S
    C24    C79       1.49086      .   S
    C76    C30       1.39608      .   S
    C76    C38       1.39603      .   S
    C79    C33       1.39592      .   S
    C79    C28       1.39607      .   S
    C82    C35       1.39609      .   S
    C82    C36       1.39608      .   S
    H11    C36       1.09307      .   S
    H10    C35       1.09269      .   S
    H13    C38       1.09297      .   S
    H8     C33       1.09290      .   S
    H4     C30       1.09297      .   S
    H2     C28       1.09291      .   S
    C30    C80       1.39608      .   S
    C33    C85       1.39609      .   S
    C35    C81       1.39609      .   S
    C28    C74       1.39609      .   S
    C36    C75       1.39609      .   S
    C38    C84       1.39603      .   S
    O137   C61       1.27464      .   S
    O106   C60       1.27470      .   S
    O96    C52       1.27465      .   S
    O141   C56       1.27480      .   S
    O133   C53       1.27465      .   S
    O103   C57       1.27458      .   S
    C81    C29       1.39608      .   S
    C81    C57       1.49069      .   S
    C84    C34       1.39608      .   S
    C84    C60       1.49081      .   S
    C85    C39       1.39607      .   S
    C85    C61       1.49069      .   S
    C75    C29       1.39609      .   S
    C75    C53       1.49085      .   S
    C74    C39       1.39608      .   S
    C74    C52       1.49084      .   S
    C80    C34       1.39608      .   S
    C80    C56       1.49080      .   S
    C39    H14       1.09292      .   S
    C34    H9        1.09281      .   S
    C29    H3        1.09286      .   S
    C53    O97       1.27475      .   S
    C52    O132      1.27475      .   S
    C60    O136      1.27468      .   S
    C57    O140      1.27481      .   S
    C61    O107      1.27481      .   S
    C56    O102      1.27458      .   S
    O108   C62       1.27474      .   S
    O121   C63       1.27475      .   S
    O112   C66       1.27475      .   S
    O116   C70       1.27481      .   S
    O126   C71       1.27458      .   S
    O131   C67       1.27465      .   S
    H6     C48       1.09286      .   S
    H15    C40       1.09286      .   S
    H19    C44       1.09286      .   S
    C66    C0        1.49081      .   S
    C66    O130      1.27470      .   S
    C67    C1        1.49069      .   S
    C67    O113      1.27464      .   S
    C70    C92       1.49069      .   S
    C70    O127      1.27459      .   S
    C63    C87       1.49085      .   S
    C63    O109      1.27465      .   S
    C62    C86       1.49084      .   S
    C62    O120      1.27465      .   S
    C71    C93       1.49080      .   S
    C71    O117      1.27480      .   S
    C48    C92       1.39608      .   S
    C48    C87       1.39609      .   S
    C40    C1        1.39607      .   S
    C40    C86       1.39608      .   S
    C44    C0        1.39608      .   S
    C44    C93       1.39608      .   S
    C0     C43       1.39603      .   S
    C1     C45       1.39609      .   S
    C86    C51       1.39609      .   S
    C93    C49       1.39608      .   S
    C92    C47       1.39609      .   S
    C87    C41       1.39609      .   S
    C51    H27       1.09317      .   S
    C51    C95       1.39607      .   S
    C45    H20       1.09301      .   S
    C45    C95       1.39608      .   S
    C47    H22       1.09269      .   S
    C47    C91       1.39609      .   S
    C43    H18       1.09297      .   S
    C43    C89       1.39608      .   S
    C49    H25       1.09297      .   S
    C49    C89       1.39614      .   S
    C41    H16       1.09307      .   S
    C41    C91       1.39608      .   S
    C91    C69       1.49086      .   S
    C89    C65       1.49069      .   S
    C95    C73       1.49070      .   S
    C69    O115      1.27475      .   S
    C69    O128      1.27481      .   S
    C73    O119      1.27465      .   S
    C73    O125      1.27480      .   S
    C65    O111      1.27465      .   S
    C65    O122      1.27468      .   S
    C32    C83       1.39609      .   S
    C32    C78       1.39608      .   S
    C32    H7        1.09291      .   S
    C37    C77       1.39608      .   S
    C37    C83       1.39608      .   S
    C37    H12       1.09291      .   S
    C31    C77       1.39609      .   S
    C31    C78       1.39608      .   S
    C31    H5        1.09275      .   S
    C77    C55       1.49068      .   S
    C83    C59       1.49085      .   S
    C78    C23       1.49085      .   S
    C55    O134      1.27474      .   S
    C55    O99       1.27464      .   S
    C59    O138      1.27464      .   S
    C59    O105      1.27482      .   S
    C23    O142      1.27464      .   S
    C23    O100      1.27464      .   S
