#======================================================================

# CRYSTAL DATA

#----------------------------------------------------------------------

data_VESTA_phase_1


_pd_phase_name                         'XCrySDen XSF file'
_cell_length_a                         16.27252
_cell_length_b                         16.25770
_cell_length_c                         16.22637
_cell_angle_alpha                      59.79795
_cell_angle_beta                       59.78800
_cell_angle_gamma                      59.81400
_symmetry_space_group_name_H-M         'P 1'
_symmetry_Int_Tables_number            1

loop_
_symmetry_equiv_pos_as_xyz
   'x, y, z'

loop_
   _atom_site_label
   _atom_site_occupancy
   _atom_site_fract_x
   _atom_site_fract_y
   _atom_site_fract_z
   _atom_site_adp_type
   _atom_site_B_iso_or_equiv
   _atom_site_type_symbol
   H1         1.0    -0.075948     -0.100886      0.267181     Biso  1.000000 H
   H2         1.0    -0.087591     -0.084265     -0.077493     Biso  1.000000 H
   H3         1.0     0.258454     -0.089761     -0.086002     Biso  1.000000 H
   H4         1.0    -0.089471      0.249987     -0.063819     Biso  1.000000 H
   H5         1.0    -0.167100      0.332198      0.177858     Biso  1.000000 H
   H6         1.0    -0.154016      0.393547      0.234226     Biso  1.000000 H
   H7         1.0    -0.127829      0.594648      0.216366     Biso  1.000000 H
   H8         1.0     0.449234     -0.190558      0.577186     Biso  1.000000 H
   H9         1.0     0.230750      0.393498      0.532024     Biso  1.000000 H
   H10        1.0     0.185839      0.313429      0.659026     Biso  1.000000 H
   H11        1.0     0.233739      0.546452      0.350988     Biso  1.000000 H
   H12        1.0     0.343006      0.147688     -0.151620     Biso  1.000000 H
   H13        1.0     0.471824      0.140142     -0.198603     Biso  1.000000 H
   H14        1.0     0.377787      0.211678     -0.117969     Biso  1.000000 H
   H15        1.0     0.528342      0.209254     -0.120225     Biso  1.000000 H
   H16        1.0     0.614261      0.131059     -0.195641     Biso  1.000000 H
   H17        1.0    -0.136743      0.224222      0.530543     Biso  1.000000 H
   H18        1.0    -0.161052      0.166335      0.663786     Biso  1.000000 H
   H19        1.0    -0.190283      0.115621      0.400053     Biso  1.000000 H
   H20        1.0    -0.110984      0.188075      0.310580     Biso  1.000000 H
   H21        1.0     0.483525      0.542000      0.127827     Biso  1.000000 H
   H22        1.0     0.352972      0.618093      0.148737     Biso  1.000000 H
   H23        1.0     0.540514      0.367566      0.157358     Biso  1.000000 H
   H24        1.0     0.659206      0.157279     -0.134223     Biso  1.000000 H
   H25        1.0    -0.196027      0.686211      0.133397     Biso  1.000000 H
   H26        1.0     0.390080      0.483469      0.195713     Biso  1.000000 H
   H27        1.0     0.153541      0.669282      0.355534     Biso  1.000000 H
   H28        1.0     0.173406      0.567298      0.468696     Biso  1.000000 H
   H29        1.0     0.626550     -0.110934      0.298452     Biso  1.000000 H
   H30        1.0     0.513796     -0.130874      0.400782     Biso  1.000000 H
   H31        1.0     0.354792     -0.103970      0.519917     Biso  1.000000 H
   H32        1.0     0.149946      0.444832      0.631693     Biso  1.000000 H
   H33        1.0    -0.214270      0.147277      0.603971     Biso  1.000000 H
   H34        1.0     0.664269      0.371656      0.077432     Biso  1.000000 H
   C1         1.0     0.596591      0.141895     -0.125840     Biso  1.000000 C
   C2         1.0    -0.150527      0.605793      0.156845     Biso  1.000000 C
   C3         1.0     0.410638      0.549053      0.131986     Biso  1.000000 C
   C4         1.0     0.163200      0.588871      0.397635     Biso  1.000000 C
   C5         1.0    -0.056023      0.065189      0.578965     Biso  1.000000 C
   C6         1.0     0.577718      0.051631     -0.036316     Biso  1.000000 C
   C7         1.0    -0.060076      0.579078      0.070005     Biso  1.000000 C
   C8         1.0     0.402558     -0.037214      0.566051     Biso  1.000000 C
   C9         1.0     0.418120      0.551236      0.035493     Biso  1.000000 C
   C10        1.0     0.075761      0.565546      0.417833     Biso  1.000000 C
   C11        1.0     0.490957      0.479031     -0.014592     Biso  1.000000 C
   C12        1.0     0.479202      0.503335     -0.105311     Biso  1.000000 C
   C13        1.0    -0.045460      0.053623      0.416884     Biso  1.000000 C
   C14        1.0     0.419539      0.051464     -0.042764     Biso  1.000000 C
   C15        1.0    -0.063699      0.414466      0.077511     Biso  1.000000 C
   C16        1.0     0.566907     -0.036415      0.404674     Biso  1.000000 C
   C17        1.0     0.574924      0.390406      0.002812     Biso  1.000000 C
   C18        1.0     0.076155      0.406461      0.583715     Biso  1.000000 C
   C19        1.0     0.021265     -0.013951      0.364492     Biso  1.000000 C
   C20        1.0    -0.133878      0.141164      0.390660     Biso  1.000000 C
   C21        1.0     0.363103     -0.012318      0.017181     Biso  1.000000 C
   C22        1.0     0.401826      0.142252     -0.132752     Biso  1.000000 C
   C23        1.0     0.000402      0.352180      0.019333     Biso  1.000000 C
   C24        1.0    -0.157042      0.400169      0.164668     Biso  1.000000 C
   C25        1.0     0.585236     -0.121918      0.379408     Biso  1.000000 C
   C26        1.0     0.018889     -0.016306      0.278055     Biso  1.000000 C
   C27        1.0     0.277067     -0.010808      0.010183     Biso  1.000000 C
   C28        1.0    -0.002032      0.261848      0.024064     Biso  1.000000 C
   C29        1.0    -0.017522      0.026911      0.499519     Biso  1.000000 C
   C30        1.0     0.498240      0.017532     -0.006003     Biso  1.000000 C
   C31        1.0    -0.028131      0.494834      0.041633     Biso  1.000000 C
   C32        1.0     0.484281     -0.003431      0.485704     Biso  1.000000 C
   C33        1.0     0.043698      0.484334      0.500520     Biso  1.000000 C
   C34        1.0     0.069475     -0.059534      0.504802     Biso  1.000000 C
   C35        1.0     0.497478     -0.070120      0.079879     Biso  1.000000 C
   C36        1.0     0.060894      0.489686     -0.043089     Biso  1.000000 C
   C37        1.0     0.486819      0.078958      0.491101     Biso  1.000000 C
   C38        1.0    -0.042553      0.481972      0.502319     Biso  1.000000 C
   C39        1.0     0.380752     -0.123304      0.580571     Biso  1.000000 C
   C40        1.0     0.165673      0.388042      0.602580     Biso  1.000000 C
   C41        1.0    -0.146888      0.155359      0.595729     Biso  1.000000 C
   C42        1.0     0.605134      0.345556      0.093487     Biso  1.000000 C
   C43        1.0     0.003742      0.005693      0.639379     Biso  1.000000 C
   C44        1.0     0.633245     -0.011761      0.028350     Biso  1.000000 C
   C45        1.0     0.005870      0.633100      0.005207     Biso  1.000000 C
   C46        1.0     0.348179      0.020444      0.628547     Biso  1.000000 C
   C47        1.0     0.355139      0.625703     -0.019588     Biso  1.000000 C
   C48        1.0     0.012422      0.620212      0.361047     Biso  1.000000 C
   C49        1.0     0.628512      0.021821      0.353432     Biso  1.000000 C
   C50        1.0     0.623547      0.353599     -0.076456     Biso  1.000000 C
   C51        1.0     0.012133      0.350511      0.644097     Biso  1.000000 C
   C52        1.0     0.724505      0.009824      0.272473     Biso  1.000000 C
   O1         1.0     0.185211     -0.065930     -0.057554     Biso  1.000000 O
   O2         1.0    -0.062495      0.176587     -0.042547     Biso  1.000000 O
   O3         1.0    -0.052475     -0.074634      0.193606     Biso  1.000000 O
   O4         1.0    -0.063921     -0.060054     -0.052172     Biso  1.000000 O
   O5         1.0    -0.129959      0.037045      0.057487     Biso  1.000000 O
   O6         1.0     0.048595     -0.141501      0.050183     Biso  1.000000 O
   O7         1.0     0.042241      0.046390     -0.125135     Biso  1.000000 O
   O8         1.0     0.054091      0.031432      0.057220     Biso  1.000000 O
   O9         1.0    -0.052737      0.053785      0.244349     Biso  1.000000 O
   O10        1.0     0.086472     -0.087992      0.243271     Biso  1.000000 O
   O11        1.0     0.239755      0.061424     -0.057927     Biso  1.000000 O
   O12        1.0     0.245918     -0.085799      0.075233     Biso  1.000000 O
   O13        1.0    -0.075883      0.229032      0.090720     Biso  1.000000 O
   O14        1.0     0.071727      0.221729     -0.041557     Biso  1.000000 O
   Zr1        1.0     0.109458      0.102045     -0.096526     Biso  1.000000 Zr
   Zr2        1.0    -0.104313     -0.114653      0.117654     Biso  1.000000 Zr
   Zr3        1.0    -0.094418      0.091421      0.119672     Biso  1.000000 Zr
   Zr4        1.0     0.104528     -0.104800     -0.104938     Biso  1.000000 Zr
   Zr5        1.0     0.118009     -0.123368      0.112385     Biso  1.000000 Zr
   Zr6        1.0    -0.114346      0.109422     -0.096645     Biso  1.000000 Zr
   S1         1.0     0.380906      0.610139     -0.130169     Biso  1.000000 S
   S2         1.0    -0.085347      0.575995      0.405806     Biso  1.000000 S
   S3         1.0     0.392722      0.116089      0.591151     Biso  1.000000 S
   S4         1.0     0.105562      0.584779     -0.089433     Biso  1.000000 S
   S5         1.0     0.105690     -0.095272      0.602877     Biso  1.000000 S
   S6         1.0     0.591353     -0.112164      0.124782     Biso  1.000000 S
   S7         1.0     0.102892      0.389214     -0.078725     Biso  1.000000 S
   S8         1.0     0.117489     -0.108646      0.412416     Biso  1.000000 S
   S9         1.0     0.403410     -0.112580      0.117064     Biso  1.000000 S
   S10        1.0     0.568577      0.422151     -0.170323     Biso  1.000000 S
   S11        1.0     0.586679      0.117695      0.399520     Biso  1.000000 S
   S12        1.0    -0.085505      0.388137      0.602453     Biso  1.000000 S
   H35        1.0    -0.198042      0.559838      0.190102     Biso  1.000000 H
   H36        1.0    -0.170319      0.187843      0.438364     Biso  1.000000 H
   H37        1.0    -0.224114      0.465728      0.150262     Biso  1.000000 H
   H38        1.0     0.632104     -0.193609      0.420512     Biso  1.000000 H
   H39        1.0     0.321524     -0.141790      0.653259     Biso  1.000000 H
   H40        1.0     0.636941      0.262872      0.116022     Biso  1.000000 H
   C53        1.0    -0.003403      0.009215      0.730399     Biso  1.000000 C
   C54        1.0     0.721526     -0.008810      0.026932     Biso  1.000000 C
   C55        1.0     0.003216      0.723568      0.005245     Biso  1.000000 C
   C56        1.0     0.264202      0.011017      0.723472     Biso  1.000000 C
   C57        1.0     0.271863      0.717134     -0.005794     Biso  1.000000 C
   C58        1.0     0.012199      0.710577      0.273425     Biso  1.000000 C
   C59        1.0     0.715741      0.269795     -0.092088     Biso  1.000000 C
   C60        1.0     0.009656      0.267199      0.738610     Biso  1.000000 C
   O15        1.0     0.764655     -0.067516      0.246960     Biso  1.000000 O
   O16        1.0     0.763888      0.078833      0.234395     Biso  1.000000 O
   O17        1.0    -0.075000      0.076388      0.768609     Biso  1.000000 O
   O18        1.0     0.067021     -0.061595      0.765997     Biso  1.000000 O
   O19        1.0     0.759974     -0.081420      0.095138     Biso  1.000000 O
   O20        1.0     0.754594      0.062771     -0.040724     Biso  1.000000 O
   O21        1.0     0.069719      0.762884     -0.068331     Biso  1.000000 O
   O22        1.0    -0.065088      0.756812      0.077490     Biso  1.000000 O
   O23        1.0     0.233566      0.074903      0.765609     Biso  1.000000 O
   O24        1.0     0.229323     -0.058927      0.758644     Biso  1.000000 O
   O25        1.0     0.244474      0.744803      0.067516     Biso  1.000000 O
   O26        1.0     0.232726      0.765237     -0.075822     Biso  1.000000 O
   O27        1.0    -0.062164      0.750415      0.242213     Biso  1.000000 O
   O28        1.0     0.084097      0.744411      0.235006     Biso  1.000000 O
   O29        1.0     0.759925      0.222945     -0.025734     Biso  1.000000 O
   O30        1.0     0.754629      0.242262     -0.167976     Biso  1.000000 O
   O31        1.0    -0.060329      0.232166      0.773988     Biso  1.000000 O
   O32        1.0     0.073820      0.237310      0.779584     Biso  1.000000 O
